Version 4
SHEET 1 880 4968
WIRE -22336 4368 -23296 4368
WIRE -23008 4448 -23072 4448
WIRE -22944 4448 -23008 4448
WIRE -22656 4448 -22688 4448
WIRE -22544 4480 -22640 4480
WIRE -22688 4496 -22688 4448
WIRE -22640 4496 -22640 4480
WIRE -22640 4496 -22688 4496
WIRE -22944 4512 -22944 4448
WIRE -22640 4592 -22640 4496
WIRE -22640 4592 -22736 4592
WIRE -22544 4592 -22640 4592
WIRE -23072 4608 -23072 4448
WIRE -22944 4608 -22944 4592
WIRE -22736 4624 -22736 4592
WIRE -22544 4624 -22544 4592
WIRE -23008 4656 -23008 4448
WIRE -23008 4656 -23072 4656
WIRE -22704 4672 -22736 4672
WIRE -22544 4672 -22576 4672
WIRE -23120 4688 -23152 4688
WIRE -22784 4704 -22976 4704
WIRE -22432 4704 -22496 4704
WIRE -22704 4720 -22704 4672
WIRE -22576 4720 -22576 4672
WIRE -22432 4736 -22432 4704
WIRE -22336 4736 -22336 4368
WIRE -22336 4736 -22432 4736
WIRE -23072 4752 -23072 4704
WIRE -22976 4752 -22976 4704
WIRE -22976 4752 -23072 4752
WIRE -22736 4752 -22736 4720
WIRE -22544 4752 -22544 4720
WIRE -23296 4768 -23296 4368
WIRE -23152 4768 -23152 4688
WIRE -23152 4768 -23296 4768
WIRE -23072 4784 -23072 4752
WIRE -23152 4864 -23152 4768
WIRE -23120 4864 -23152 4864
WIRE -23072 4864 -23072 4832
WIRE -23072 4928 -23072 4880
FLAG -22704 4720 0
FLAG -22576 4720 0
FLAG -22736 4832 0
FLAG -22544 4832 0
FLAG -23072 4928 0
FLAG -22944 4608 0
FLAG -22656 4448 Vout
IOPIN -22656 4448 Out
FLAG -22544 4544 0
SYMBOL nmos4 -22784 4624 R0
SYMATTR InstName M1
SYMATTR Value2 l=180nm w=270nm
SYMBOL nmos4 -22496 4624 M0
SYMATTR InstName M2
SYMATTR Value2 l=180nm w=270nm
SYMBOL voltage -22736 4736 R0
WINDOW 123 0 0 Left 0
WINDOW 39 0 0 Left 0
SYMATTR InstName A
SYMATTR Value PULSE(0 1.8 0 0.1n 0.1n 10n 20n)
SYMBOL voltage -22544 4736 R0
WINDOW 123 0 0 Left 0
WINDOW 39 0 0 Left 0
SYMATTR InstName B
SYMATTR Value PULSE(1.8 0 0 0.1n 0.1n 10n 20n)
SYMBOL voltage -22336 4720 R0
WINDOW 123 0 0 Left 0
WINDOW 39 0 0 Left 0
SYMATTR InstName V3
SYMATTR Value PULSE(0 1.8 0 0.1n 0.1n 20n 40n)
SYMBOL nmos4 -23120 4784 R0
SYMATTR InstName M3
SYMATTR Value2 l=180nm w=270nm
SYMBOL pmos4 -23120 4608 R0
SYMATTR InstName M4
SYMATTR Value2 l=180nm w=810nm
SYMBOL voltage -22944 4496 R0
WINDOW 123 0 0 Left 0
WINDOW 39 0 0 Left 0
SYMATTR InstName V4
SYMATTR Value 1.8
SYMBOL cap -22560 4480 R0
SYMATTR InstName C1
SYMATTR Value 50f
TEXT -23298 4952 Left 2 !.tran 0 100n 0 0.1n
