Version 4
SHEET 1 1224 680
WIRE 400 -320 304 -320
WIRE 480 -320 400 -320
WIRE 672 -320 480 -320
WIRE 400 -272 400 -320
WIRE 400 -272 304 -272
WIRE 80 -240 -112 -240
WIRE 256 -240 80 -240
WIRE 304 -64 304 -224
WIRE 480 -16 480 -320
WIRE 480 -16 304 -16
WIRE 256 16 -96 16
WIRE 304 32 304 16
WIRE 448 32 304 32
WIRE 800 32 448 32
WIRE 304 160 304 32
WIRE 304 160 160 160
WIRE 448 160 448 32
WIRE 448 160 432 160
WIRE 288 208 160 208
WIRE 576 208 432 208
WIRE 576 224 576 208
WIRE 80 240 80 -240
WIRE 112 240 80 240
WIRE 288 256 288 208
WIRE 576 256 576 224
WIRE -96 288 -96 16
WIRE 384 288 384 240
WIRE 384 288 -96 288
FLAG 160 256 0
FLAG 432 256 0
FLAG -112 -240 Vin1
IOPIN -112 -240 In
FLAG -96 288 Vin2
IOPIN -96 288 In
FLAG 800 32 Vout
IOPIN 800 32 Out
FLAG 288 256 0
FLAG 576 256 0
FLAG 576 224 Vlow
IOPIN 576 224 Out
FLAG 672 -320 Vhigh
IOPIN 672 -320 Out
SYMBOL nmos4 112 160 R0
SYMATTR InstName M1
SYMATTR Value2 l=90nm w=135nm
SYMBOL nmos4 384 160 R0
SYMATTR InstName M2
SYMATTR Value2 l=90nm w=135nm
SYMBOL pmos4 256 -64 R0
SYMATTR InstName M3
SYMATTR Value2 l=90nm w=405nm
SYMBOL pmos4 256 -320 R0
SYMATTR InstName M4
SYMATTR Value2 l=90nm w=405nm
